#\#CIF1.1
##########################################################################
#               Crystallographic Information Format file 
#               Produced by PyCifRW module
# 
#  This is a CIF file.  CIF has been adopted by the International
#  Union of Crystallography as the standard for data archiving and 
#  transmission.
#
#  For information on this file format, follow the CIF links at
#  http://www.iucr.org
##########################################################################

data_1-cif2cell
_cell_length_a                          2.456
_cell_length_b                          2.456
_cell_length_c                          6.696
_cell_angle_alpha                       90.0
_cell_angle_beta                        90.0
_cell_angle_gamma                       120.0
_space_group_IT_number                  186
_space_group_name_H-M_alt               P63mc
_space_group_name_Hall                  'P 6c -2c'
loop_
  _atom_site_label
  _atom_site_type_symbol
  _atom_site_symmetry_multiplicity
  _atom_site_fract_x
  _atom_site_fract_y
  _atom_site_fract_z
  _atom_site_occupancy
   C1  C  2  0.0000000000000000  0.0000000000000000  0.0000000000000000  1.0
   C1  C  2  0.0000000000000000  0.0000000000000000  0.5000000000000000  1.0
   C2  C  2  0.3333333333333333  0.6666666666666666  0.0000000000000000  1.0
   C2  C  2  0.6666666666666666  0.3333333333333333  0.5000000000000000  1.0
 
